Version 4.1
SHEET 1 1176 680
WIRE 560 -16 560 -160
WIRE 832 112 832 -160
WIRE 240 160 160 160
WIRE 336 160 320 160
WIRE 560 160 560 64
WIRE 560 160 400 160
WIRE 768 160 560 160
WIRE 560 272 560 160
WIRE 832 336 832 208
WIRE 560 480 560 352
WIRE 832 480 832 416
FLAG 80 160 0
FLAG 96 608 0
FLAG 96 480 0
FLAG 16 480 Vcc
IOPIN 16 480 In
FLAG 560 -160 Vcc
IOPIN 560 -160 In
FLAG 832 -160 Vcc
IOPIN 832 -160 In
FLAG 16 608 -Vcc
IOPIN 16 608 In
FLAG 832 480 -Vcc
IOPIN 832 480 In
FLAG 560 480 -Vcc
IOPIN 560 480 In
SYMBOL voltage 176 160 R90
WINDOW 0 -32 56 VBottom 2
WINDOW 3 32 56 VTop 2
WINDOW 123 0 0 Left 0
WINDOW 39 0 0 Left 0
SYMATTR InstName V1
SYMATTR Value SINE(0 0.5 1000)
SYMBOL res 336 144 R90
WINDOW 0 0 56 VBottom 2
WINDOW 3 32 56 VTop 2
SYMATTR InstName R1
SYMATTR Value 100
SYMBOL cap 400 144 R90
WINDOW 0 0 32 VBottom 2
WINDOW 3 32 32 VTop 2
SYMATTR InstName C1
SYMATTR Value 1µF
SYMBOL res 544 -32 R0
SYMATTR InstName R2
SYMATTR Value 10000
SYMBOL res 544 256 R0
SYMATTR InstName R3
SYMATTR Value 10000
SYMBOL npn 768 112 R0
SYMATTR InstName Q1
SYMATTR Value 2N3904
SYMBOL res 816 320 R0
SYMATTR InstName R4
SYMATTR Value 100
SYMBOL voltage 0 608 R270
WINDOW 123 0 0 Left 0
WINDOW 39 0 0 Left 0
SYMATTR InstName V2
SYMATTR Value -5V
SYMBOL voltage 0 480 R270
WINDOW 0 32 56 VTop 2
WINDOW 3 -32 56 VBottom 2
SYMATTR InstName V3
SYMATTR Value 5V
TEXT 232 336 Left 2 !.tran 0.01s
